LAMMPS (23 Jun 2022 - Update 2)
units		metal
atom_style	atomic
boundary	p p p
box		tilt large
read_data	test.lammps
Reading data file ...
  orthogonal box = (0 0 0) to (12 12 8.8118794)
  reading atoms ...
  96 atoms

pair_style hybrid/overlay nn/intel zbl/pair

pair_coeff  * * nn/intel potential_OHf O Hf
AVX2 for angular descriptor G4 calc : on
AVX2 for angular descriptor G5 calc : off
AVX512 for descriptor calc : on

pair_coeff	1 1	zbl/pair 8 8	0.8631 1.1097
pair_coeff	1 2	zbl/pair 8 72	1.2108 1.5567
pair_coeff	2 2	zbl/pair 72 72	1.6751 2.1537

mass	1 15.9990
mass	2 178.4900

thermo		1000
thermo_modify	lost ignore flush yes

minimize        1e-6 1e-10 10000 100000
Generated 0 of 1 mixed pair_coeff terms from geometric mixing rule
  update every 1 steps, delay 0 steps, check yes
Step          Temp          E_pair         E_mol          TotEng         Press
0   0             -960.65309      0             -960.65309     -17682.153
Loop time of 0.0243921 on 144 procs for 13 steps with 96 atoms

Minimization stats:
  Stopping criterion = energy tolerance
  Energy initial, next-to-last, final =
  Force two-norm initial, final = 0.50559921 0.13760093
  Force max component initial, final = 0.098352637 0.027787554
  Final line search alpha, max atom move = 1 0.027787554
  Iterations, force evaluations = 13 26

dump              DUMP all custom 1000 dump.lammpstrj id type x y z
dump_modify    DUMP sort id

velocity	all create 3000 4218 dist gaussian
fix                  THERMOSTAT all nvt temp 3000 3000 1

timestep	0.0010
run             100000
Generated 0 of 1 mixed pair_coeff terms from geometric mixing rule
Step          Temp          E_pair         E_mol          TotEng         Press
13   3000          -960.75141      0             -923.91227      8529.4997
Averages over the last 51 of 102 rows, steps 51000 to 100013:
Temp E_pair E_mol TotEng Press
3042.53 -911.558 0 -874.197 47613.5
Loop time of 72.8684 on 144 procs for 100000 steps with 96 atoms

unfix           THERMOSTAT

fix              THERMOSTAT all nvt temp 3000 500 1
run             250000
Generated 0 of 1 mixed pair_coeff terms from geometric mixing rule
Step          Temp          E_pair         E_mol          TotEng         Press
100013   2652.4745     -911.59941      0             -879.02778      61801.064
Averages over the last 126 of 252 rows, steps 226000 to 350013:
Temp E_pair E_mol TotEng Press
1154.98 -944.885 0 -930.702 -399.527
Loop time of 187.023 on 144 procs for 250000 steps with 96 atoms

unfix           THERMOSTAT

fix             1 all box/relax z 0 vmax 0.001 fixedpoint 0 0 0
minimize        1e-6 1e-10 10000 100000
Generated 0 of 1 mixed pair_coeff terms from geometric mixing rule
Step          Temp          E_pair         E_mol          TotEng         Press          Volume
350013   509.1593      -953.46279      0             -947.21046     -28559.718      1268.9106
Loop time of 0.102161 on 144 procs for 114 steps with 96 atoms

Minimization stats:
  Stopping criterion = energy tolerance
  Energy initial, next-to-last, final =
  Force two-norm initial, final = 50.819382 1.7408795
  Force max component initial, final = 48.846897 1.4985976
  Final line search alpha, max atom move = 0.0019237969 0.0028829975
  Iterations, force evaluations = 114 115

write_data      relaxed.lammps
System init for write_data ...
Generated 0 of 1 mixed pair_coeff terms from geometric mixing rule
